test/data/singlephase38linecodes.dss
New object=circuit.car38
~ basekv=1 Bus1=0 pu=1.00 phases=1 R1=0 X1=0.0001

New linecode.0_1 nphases=1 BaseFreq=60
~ rmatrix = [24.2]
~ xmatrix = [48.2]

New linecode.1_2 nphases=1 BaseFreq=60
~ rmatrix = [227.3]
~ xmatrix = [743.5]

New linecode.2_3 nphases=1 BaseFreq=60
~ rmatrix = [76.3]
~ xmatrix = [18.2]

New linecode.2_4 nphases=1 BaseFreq=60
~ rmatrix = [43.6]
~ xmatrix = [142.7]

New linecode.4_5 nphases=1 BaseFreq=60
~ rmatrix = [25.8]
~ xmatrix = [84.4]

New linecode.5_6 nphases=1 BaseFreq=60
~ rmatrix = [10.5]
~ xmatrix = [10.7]

New linecode.6_7 nphases=1 BaseFreq=60
~ rmatrix = [23.2]
~ xmatrix = [23.6]

New linecode.7_8 nphases=1 BaseFreq=60
~ rmatrix = [75.1]
~ xmatrix = [26.7]

New linecode.8_9 nphases=1 BaseFreq=60
~ rmatrix = [114.4]
~ xmatrix = [27.3]

New linecode.9_10 nphases=1 BaseFreq=60
~ rmatrix = [190.3]
~ xmatrix = [67.7]

New linecode.7_11 nphases=1 BaseFreq=60
~ rmatrix = [63.7]
~ xmatrix = [22.7]

New linecode.11_12 nphases=1 BaseFreq=60
~ rmatrix = [278.7]
~ xmatrix = [99.2]

New linecode.12_13 nphases=1 BaseFreq=60
~ rmatrix = [254.2]
~ xmatrix = [90.5]

New linecode.13_14 nphases=1 BaseFreq=60
~ rmatrix = [21.8]
~ xmatrix = [5.2]

New linecode.14_15 nphases=1 BaseFreq=60
~ rmatrix = [57.3]
~ xmatrix = [20.4]

New linecode.15_16 nphases=1 BaseFreq=60
~ rmatrix = [126.7]
~ xmatrix = [45.1]

New linecode.16_17 nphases=1 BaseFreq=60
~ rmatrix = [48.6]
~ xmatrix = [11.6]

New linecode.17_18 nphases=1 BaseFreq=60
~ rmatrix = [95.1]
~ xmatrix = [22.7]

New linecode.18_19 nphases=1 BaseFreq=60
~ rmatrix = [137.3]
~ xmatrix = [32.8]

New linecode.19_20 nphases=1 BaseFreq=60
~ rmatrix = [129.5]
~ xmatrix = [30.9]

New linecode.20_21 nphases=1 BaseFreq=60
~ rmatrix = [15.1]
~ xmatrix = [5.4]

New linecode.21_22 nphases=1 BaseFreq=60
~ rmatrix = [50.8]
~ xmatrix = [12.1]

New linecode.22_23 nphases=1 BaseFreq=60
~ rmatrix = [69.1]
~ xmatrix = [16.5]

New linecode.23_24 nphases=1 BaseFreq=60
~ rmatrix = [31.6]
~ xmatrix = [11.2]

New linecode.24_25 nphases=1 BaseFreq=60
~ rmatrix = [96.3]
~ xmatrix = [23]

New linecode.7_26 nphases=1 BaseFreq=60
~ rmatrix = [110.7]
~ xmatrix = [112.6]

New linecode.26_27 nphases=1 BaseFreq=60
~ rmatrix = [2.1]
~ xmatrix = [0.7]

New linecode.7_28 nphases=1 BaseFreq=60
~ rmatrix = [242.1]
~ xmatrix = [86.2]

New linecode.7_29 nphases=1 BaseFreq=60
~ rmatrix = [27.3]
~ xmatrix = [27.8]

New linecode.29_30 nphases=1 BaseFreq=60
~ rmatrix = [174.6]
~ xmatrix = [62.1]

New linecode.30_31 nphases=1 BaseFreq=60
~ rmatrix = [43]
~ xmatrix = [15.3]

New linecode.31_32 nphases=1 BaseFreq=60
~ rmatrix = [207.8]
~ xmatrix = [74]

New linecode.32_33 nphases=1 BaseFreq=60
~ rmatrix = [109.4]
~ xmatrix = [38.9]

New linecode.33_34 nphases=1 BaseFreq=60
~ rmatrix = [50.5]
~ xmatrix = [18]

New linecode.34_35 nphases=1 BaseFreq=60
~ rmatrix = [165.2]
~ xmatrix = [58.8]

New linecode.6_36 nphases=1 BaseFreq=60
~ rmatrix = [49.5]
~ xmatrix = [17.6]

New linecode.6_37 nphases=1 BaseFreq=60
~ rmatrix = [5.8]
~ xmatrix = [2.1]